* NGSPICE file created from rgb_mixer.ext - technology: sky130A

* Black-box entry subcircuit for sky130_fd_sc_hd__tapvpwrvgnd_1 abstract view
.subckt sky130_fd_sc_hd__tapvpwrvgnd_1 VGND VPWR
.ends

* Black-box entry subcircuit for sky130_fd_sc_hd__a21oi_1 abstract view
.subckt sky130_fd_sc_hd__a21oi_1 A1 A2 B1 VGND VNB VPB VPWR Y
.ends

* Black-box entry subcircuit for sky130_fd_sc_hd__fill_2 abstract view
.subckt sky130_fd_sc_hd__fill_2 VGND VNB VPB VPWR
.ends

* Black-box entry subcircuit for sky130_fd_sc_hd__dfxtp_1 abstract view
.subckt sky130_fd_sc_hd__dfxtp_1 CLK D VGND VNB VPB VPWR Q
.ends

* Black-box entry subcircuit for sky130_fd_sc_hd__fill_1 abstract view
.subckt sky130_fd_sc_hd__fill_1 VGND VNB VPB VPWR
.ends

* Black-box entry subcircuit for sky130_fd_sc_hd__decap_6 abstract view
.subckt sky130_fd_sc_hd__decap_6 VGND VNB VPB VPWR
.ends

* Black-box entry subcircuit for sky130_fd_sc_hd__dlxtn_1 abstract view
.subckt sky130_fd_sc_hd__dlxtn_1 D GATE_N VGND VNB VPB VPWR Q
.ends

* Black-box entry subcircuit for sky130_fd_sc_hd__decap_8 abstract view
.subckt sky130_fd_sc_hd__decap_8 VGND VNB VPB VPWR
.ends

* Black-box entry subcircuit for sky130_ef_sc_hd__decap_12 abstract view
.subckt sky130_ef_sc_hd__decap_12 VGND VNB VPB VPWR
.ends

* Black-box entry subcircuit for sky130_fd_sc_hd__decap_4 abstract view
.subckt sky130_fd_sc_hd__decap_4 VGND VNB VPB VPWR
.ends

* Black-box entry subcircuit for sky130_fd_sc_hd__decap_3 abstract view
.subckt sky130_fd_sc_hd__decap_3 VGND VNB VPB VPWR
.ends

* Black-box entry subcircuit for sky130_fd_sc_hd__clkbuf_1 abstract view
.subckt sky130_fd_sc_hd__clkbuf_1 A VGND VNB VPB VPWR X
.ends

* Black-box entry subcircuit for sky130_fd_sc_hd__o21a_1 abstract view
.subckt sky130_fd_sc_hd__o21a_1 A1 A2 B1 VGND VNB VPB VPWR X
.ends

* Black-box entry subcircuit for sky130_fd_sc_hd__dlygate4sd3_1 abstract view
.subckt sky130_fd_sc_hd__dlygate4sd3_1 A VGND VNB VPB VPWR X
.ends

* Black-box entry subcircuit for sky130_fd_sc_hd__buf_1 abstract view
.subckt sky130_fd_sc_hd__buf_1 A VGND VNB VPB VPWR X
.ends

* Black-box entry subcircuit for sky130_fd_sc_hd__and2_1 abstract view
.subckt sky130_fd_sc_hd__and2_1 A B VGND VNB VPB VPWR X
.ends

* Black-box entry subcircuit for sky130_fd_sc_hd__o211ai_2 abstract view
.subckt sky130_fd_sc_hd__o211ai_2 A1 A2 B1 C1 VGND VNB VPB VPWR Y
.ends

* Black-box entry subcircuit for sky130_fd_sc_hd__and2b_1 abstract view
.subckt sky130_fd_sc_hd__and2b_1 A_N B VGND VNB VPB VPWR X
.ends

* Black-box entry subcircuit for sky130_fd_sc_hd__o22a_1 abstract view
.subckt sky130_fd_sc_hd__o22a_1 A1 A2 B1 B2 VGND VNB VPB VPWR X
.ends

* Black-box entry subcircuit for sky130_fd_sc_hd__clkbuf_16 abstract view
.subckt sky130_fd_sc_hd__clkbuf_16 A VGND VNB VPB VPWR X
.ends

* Black-box entry subcircuit for sky130_fd_sc_hd__nand2_1 abstract view
.subckt sky130_fd_sc_hd__nand2_1 A B VGND VNB VPB VPWR Y
.ends

* Black-box entry subcircuit for sky130_fd_sc_hd__nor2_1 abstract view
.subckt sky130_fd_sc_hd__nor2_1 A B VGND VNB VPB VPWR Y
.ends

* Black-box entry subcircuit for sky130_fd_sc_hd__buf_2 abstract view
.subckt sky130_fd_sc_hd__buf_2 A VGND VNB VPB VPWR X
.ends

* Black-box entry subcircuit for sky130_fd_sc_hd__or2_1 abstract view
.subckt sky130_fd_sc_hd__or2_1 A B VGND VNB VPB VPWR X
.ends

* Black-box entry subcircuit for sky130_fd_sc_hd__clkbuf_4 abstract view
.subckt sky130_fd_sc_hd__clkbuf_4 A VGND VNB VPB VPWR X
.ends

* Black-box entry subcircuit for sky130_fd_sc_hd__and3_1 abstract view
.subckt sky130_fd_sc_hd__and3_1 A B C VGND VNB VPB VPWR X
.ends

* Black-box entry subcircuit for sky130_fd_sc_hd__a311o_2 abstract view
.subckt sky130_fd_sc_hd__a311o_2 A1 A2 A3 B1 C1 VGND VNB VPB VPWR X
.ends

* Black-box entry subcircuit for sky130_fd_sc_hd__or4_1 abstract view
.subckt sky130_fd_sc_hd__or4_1 A B C D VGND VNB VPB VPWR X
.ends

* Black-box entry subcircuit for sky130_fd_sc_hd__inv_2 abstract view
.subckt sky130_fd_sc_hd__inv_2 A VGND VNB VPB VPWR Y
.ends

* Black-box entry subcircuit for sky130_fd_sc_hd__o21ba_1 abstract view
.subckt sky130_fd_sc_hd__o21ba_1 A1 A2 B1_N VGND VNB VPB VPWR X
.ends

* Black-box entry subcircuit for sky130_fd_sc_hd__o22ai_1 abstract view
.subckt sky130_fd_sc_hd__o22ai_1 A1 A2 B1 B2 VGND VNB VPB VPWR Y
.ends

* Black-box entry subcircuit for sky130_fd_sc_hd__xnor2_1 abstract view
.subckt sky130_fd_sc_hd__xnor2_1 A B VGND VNB VPB VPWR Y
.ends

* Black-box entry subcircuit for sky130_fd_sc_hd__o21ai_1 abstract view
.subckt sky130_fd_sc_hd__o21ai_1 A1 A2 B1 VGND VNB VPB VPWR Y
.ends

* Black-box entry subcircuit for sky130_fd_sc_hd__a221oi_4 abstract view
.subckt sky130_fd_sc_hd__a221oi_4 A1 A2 B1 B2 C1 VGND VNB VPB VPWR Y
.ends

* Black-box entry subcircuit for sky130_fd_sc_hd__o41a_1 abstract view
.subckt sky130_fd_sc_hd__o41a_1 A1 A2 A3 A4 B1 VGND VNB VPB VPWR X
.ends

* Black-box entry subcircuit for sky130_fd_sc_hd__a311o_1 abstract view
.subckt sky130_fd_sc_hd__a311o_1 A1 A2 A3 B1 C1 VGND VNB VPB VPWR X
.ends

* Black-box entry subcircuit for sky130_fd_sc_hd__buf_4 abstract view
.subckt sky130_fd_sc_hd__buf_4 A VGND VNB VPB VPWR X
.ends

* Black-box entry subcircuit for sky130_fd_sc_hd__nor3_1 abstract view
.subckt sky130_fd_sc_hd__nor3_1 A B C VGND VNB VPB VPWR Y
.ends

* Black-box entry subcircuit for sky130_fd_sc_hd__o211a_1 abstract view
.subckt sky130_fd_sc_hd__o211a_1 A1 A2 B1 C1 VGND VNB VPB VPWR X
.ends

* Black-box entry subcircuit for sky130_fd_sc_hd__a21o_1 abstract view
.subckt sky130_fd_sc_hd__a21o_1 A1 A2 B1 VGND VNB VPB VPWR X
.ends

* Black-box entry subcircuit for sky130_fd_sc_hd__clkbuf_2 abstract view
.subckt sky130_fd_sc_hd__clkbuf_2 A VGND VNB VPB VPWR X
.ends

* Black-box entry subcircuit for sky130_fd_sc_hd__a31o_1 abstract view
.subckt sky130_fd_sc_hd__a31o_1 A1 A2 A3 B1 VGND VNB VPB VPWR X
.ends

* Black-box entry subcircuit for sky130_fd_sc_hd__a311oi_1 abstract view
.subckt sky130_fd_sc_hd__a311oi_1 A1 A2 A3 B1 C1 VGND VNB VPB VPWR Y
.ends

* Black-box entry subcircuit for sky130_fd_sc_hd__nor2_2 abstract view
.subckt sky130_fd_sc_hd__nor2_2 A B VGND VNB VPB VPWR Y
.ends

* Black-box entry subcircuit for sky130_fd_sc_hd__o221a_1 abstract view
.subckt sky130_fd_sc_hd__o221a_1 A1 A2 B1 B2 C1 VGND VNB VPB VPWR X
.ends

* Black-box entry subcircuit for sky130_fd_sc_hd__a2111oi_1 abstract view
.subckt sky130_fd_sc_hd__a2111oi_1 A1 A2 B1 C1 D1 VGND VNB VPB VPWR Y
.ends

* Black-box entry subcircuit for sky130_fd_sc_hd__or2b_1 abstract view
.subckt sky130_fd_sc_hd__or2b_1 A B_N VGND VNB VPB VPWR X
.ends

* Black-box entry subcircuit for sky130_fd_sc_hd__xor2_1 abstract view
.subckt sky130_fd_sc_hd__xor2_1 A B VGND VNB VPB VPWR X
.ends

* Black-box entry subcircuit for sky130_fd_sc_hd__mux2_1 abstract view
.subckt sky130_fd_sc_hd__mux2_1 A0 A1 S VGND VNB VPB VPWR X
.ends

* Black-box entry subcircuit for sky130_fd_sc_hd__a22o_1 abstract view
.subckt sky130_fd_sc_hd__a22o_1 A1 A2 B1 B2 VGND VNB VPB VPWR X
.ends

* Black-box entry subcircuit for sky130_fd_sc_hd__and4_1 abstract view
.subckt sky130_fd_sc_hd__and4_1 A B C D VGND VNB VPB VPWR X
.ends

* Black-box entry subcircuit for sky130_fd_sc_hd__a211o_1 abstract view
.subckt sky130_fd_sc_hd__a211o_1 A1 A2 B1 C1 VGND VNB VPB VPWR X
.ends

* Black-box entry subcircuit for sky130_fd_sc_hd__nor3b_1 abstract view
.subckt sky130_fd_sc_hd__nor3b_1 A B C_N VGND VNB VPB VPWR Y
.ends

* Black-box entry subcircuit for sky130_fd_sc_hd__o211ai_1 abstract view
.subckt sky130_fd_sc_hd__o211ai_1 A1 A2 B1 C1 VGND VNB VPB VPWR Y
.ends

* Black-box entry subcircuit for sky130_fd_sc_hd__and3b_1 abstract view
.subckt sky130_fd_sc_hd__and3b_1 A_N B C VGND VNB VPB VPWR X
.ends

.subckt rgb_mixer VGND VPWR clk enc0_a enc0_b enc1_a enc1_b enc2_a enc2_b pwm0_out
+ pwm1_out pwm2_out reset
XTAP_177 VGND VPWR sky130_fd_sc_hd__tapvpwrvgnd_1
XTAP_188 VGND VPWR sky130_fd_sc_hd__tapvpwrvgnd_1
XTAP_199 VGND VPWR sky130_fd_sc_hd__tapvpwrvgnd_1
X_501_ _149_ p1.counter\[7\] _165_ VGND VGND VPWR VPWR net9 sky130_fd_sc_hd__a21oi_1
XFILLER_0_23_225 VGND VGND VPWR VPWR sky130_fd_sc_hd__fill_2
X_981_ clknet_3_6__leaf_clk _100_ VGND VGND VPWR VPWR e2.value\[3\] sky130_fd_sc_hd__dfxtp_1
XFILLER_0_6_211 VGND VGND VPWR VPWR sky130_fd_sc_hd__fill_1
XFILLER_0_37_125 VGND VGND VPWR VPWR sky130_fd_sc_hd__decap_6
XFILLER_0_37_169 VGND VGND VPWR VPWR sky130_fd_sc_hd__fill_1
X_895_ _000_ _001_ VGND VGND VPWR VPWR d0.debounced sky130_fd_sc_hd__dlxtn_1
X_964_ clknet_3_4__leaf_clk _084_ VGND VGND VPWR VPWR d4.state\[4\] sky130_fd_sc_hd__dfxtp_1
XFILLER_0_0_18 VGND VGND VPWR VPWR sky130_fd_sc_hd__decap_8
XFILLER_0_0_29 VGND VGND VPWR VPWR sky130_ef_sc_hd__decap_12
XFILLER_0_28_158 VGND VGND VPWR VPWR sky130_fd_sc_hd__decap_4
XFILLER_0_3_225 VGND VGND VPWR VPWR sky130_fd_sc_hd__fill_2
XFILLER_0_10_85 VGND VGND VPWR VPWR sky130_fd_sc_hd__decap_8
XFILLER_0_19_61 VGND VGND VPWR VPWR sky130_fd_sc_hd__fill_1
XFILLER_0_19_147 VGND VGND VPWR VPWR sky130_fd_sc_hd__decap_3
XFILLER_0_19_169 VGND VGND VPWR VPWR sky130_ef_sc_hd__decap_12
XFILLER_0_34_139 VGND VGND VPWR VPWR sky130_fd_sc_hd__fill_1
X_680_ _292_ VGND VGND VPWR VPWR _056_ sky130_fd_sc_hd__clkbuf_1
XFILLER_0_25_139 VGND VGND VPWR VPWR sky130_fd_sc_hd__decap_3
XFILLER_0_33_150 VGND VGND VPWR VPWR sky130_fd_sc_hd__decap_3
X_878_ net21 _433_ _436_ VGND VGND VPWR VPWR _110_ sky130_fd_sc_hd__o21a_1
X_947_ clknet_3_3__leaf_clk _068_ VGND VGND VPWR VPWR e1.value\[5\] sky130_fd_sc_hd__dfxtp_1
XFILLER_0_34_3 VGND VGND VPWR VPWR sky130_ef_sc_hd__decap_12
XFILLER_0_30_164 VGND VGND VPWR VPWR sky130_fd_sc_hd__decap_4
Xhold63 d1.state\[2\] VGND VGND VPWR VPWR net73 sky130_fd_sc_hd__dlygate4sd3_1
Xhold30 e0.value\[0\] VGND VGND VPWR VPWR net40 sky130_fd_sc_hd__buf_1
Xhold52 p0.counter\[1\] VGND VGND VPWR VPWR net62 sky130_fd_sc_hd__dlygate4sd3_1
X_801_ net65 _367_ VGND VGND VPWR VPWR _376_ sky130_fd_sc_hd__and2_1
Xhold41 d3.state\[1\] VGND VGND VPWR VPWR net51 sky130_fd_sc_hd__dlygate4sd3_1
X_732_ _331_ _327_ _332_ _308_ VGND VGND VPWR VPWR _333_ sky130_fd_sc_hd__o211ai_2
Xhold74 e1.value\[7\] VGND VGND VPWR VPWR net84 sky130_fd_sc_hd__dlygate4sd3_1
X_663_ net43 _283_ VGND VGND VPWR VPWR _284_ sky130_fd_sc_hd__and2_1
X_594_ _228_ VGND VGND VPWR VPWR _034_ sky130_fd_sc_hd__clkbuf_1
XFILLER_0_32_83 VGND VGND VPWR VPWR sky130_fd_sc_hd__fill_1
XFILLER_0_12_197 VGND VGND VPWR VPWR sky130_fd_sc_hd__decap_6
X_715_ _317_ _318_ VGND VGND VPWR VPWR _319_ sky130_fd_sc_hd__and2b_1
X_577_ _219_ VGND VGND VPWR VPWR _026_ sky130_fd_sc_hd__clkbuf_1
X_646_ _272_ VGND VGND VPWR VPWR _042_ sky130_fd_sc_hd__clkbuf_1
XTAP_112 VGND VPWR sky130_fd_sc_hd__tapvpwrvgnd_1
XTAP_101 VGND VPWR sky130_fd_sc_hd__tapvpwrvgnd_1
XTAP_123 VGND VPWR sky130_fd_sc_hd__tapvpwrvgnd_1
XTAP_134 VGND VPWR sky130_fd_sc_hd__tapvpwrvgnd_1
XTAP_145 VGND VPWR sky130_fd_sc_hd__tapvpwrvgnd_1
XTAP_156 VGND VPWR sky130_fd_sc_hd__tapvpwrvgnd_1
XTAP_167 VGND VPWR sky130_fd_sc_hd__tapvpwrvgnd_1
XTAP_178 VGND VPWR sky130_fd_sc_hd__tapvpwrvgnd_1
XTAP_189 VGND VPWR sky130_fd_sc_hd__tapvpwrvgnd_1
XFILLER_0_27_50 VGND VGND VPWR VPWR sky130_fd_sc_hd__decap_6
XFILLER_0_27_61 VGND VGND VPWR VPWR sky130_fd_sc_hd__decap_6
X_500_ _149_ p1.counter\[7\] _150_ _164_ VGND VGND VPWR VPWR _165_ sky130_fd_sc_hd__o22a_1
XFILLER_0_23_19 VGND VGND VPWR VPWR sky130_fd_sc_hd__decap_3
Xclkbuf_3_6__f_clk clknet_0_clk VGND VGND VPWR VPWR clknet_3_6__leaf_clk sky130_fd_sc_hd__clkbuf_16
X_629_ _238_ _257_ VGND VGND VPWR VPWR _258_ sky130_fd_sc_hd__nand2_1
XFILLER_0_13_74 VGND VGND VPWR VPWR sky130_fd_sc_hd__fill_1
X_980_ clknet_3_6__leaf_clk _099_ VGND VGND VPWR VPWR e2.value\[2\] sky130_fd_sc_hd__dfxtp_1
X_963_ clknet_3_4__leaf_clk _083_ VGND VGND VPWR VPWR d4.state\[3\] sky130_fd_sc_hd__dfxtp_1
X_894_ clknet_3_3__leaf_clk _019_ VGND VGND VPWR VPWR p2.counter\[7\] sky130_fd_sc_hd__dfxtp_1
XFILLER_0_19_159 VGND VGND VPWR VPWR sky130_fd_sc_hd__fill_1
XFILLER_0_27_181 VGND VGND VPWR VPWR sky130_fd_sc_hd__decap_6
XFILLER_0_18_170 VGND VGND VPWR VPWR sky130_fd_sc_hd__decap_6
XFILLER_0_33_173 VGND VGND VPWR VPWR sky130_ef_sc_hd__decap_12
X_877_ _204_ _435_ VGND VGND VPWR VPWR _436_ sky130_fd_sc_hd__nor2_1
X_946_ clknet_3_2__leaf_clk _067_ VGND VGND VPWR VPWR e1.value\[4\] sky130_fd_sc_hd__dfxtp_1
XFILLER_0_21_41 VGND VGND VPWR VPWR sky130_fd_sc_hd__decap_3
XFILLER_0_30_176 VGND VGND VPWR VPWR sky130_fd_sc_hd__fill_1
XFILLER_0_30_187 VGND VGND VPWR VPWR sky130_fd_sc_hd__decap_8
X_662_ _201_ VGND VGND VPWR VPWR _283_ sky130_fd_sc_hd__buf_2
Xhold64 d0.state\[5\] VGND VGND VPWR VPWR net74 sky130_fd_sc_hd__dlygate4sd3_1
Xhold42 d4.state\[4\] VGND VGND VPWR VPWR net52 sky130_fd_sc_hd__dlygate4sd3_1
X_800_ _375_ VGND VGND VPWR VPWR _093_ sky130_fd_sc_hd__clkbuf_1
Xhold53 d6.state\[7\] VGND VGND VPWR VPWR net63 sky130_fd_sc_hd__dlygate4sd3_1
Xhold31 p1.counter\[1\] VGND VGND VPWR VPWR net41 sky130_fd_sc_hd__dlygate4sd3_1
Xhold75 d3.state\[7\] VGND VGND VPWR VPWR net85 sky130_fd_sc_hd__dlygate4sd3_1
Xhold20 p1.counter\[5\] VGND VGND VPWR VPWR net30 sky130_fd_sc_hd__dlygate4sd3_1
X_731_ e1.value\[4\] _304_ VGND VGND VPWR VPWR _332_ sky130_fd_sc_hd__or2_1
X_593_ net63 _222_ VGND VGND VPWR VPWR _228_ sky130_fd_sc_hd__and2_1
XFILLER_0_6_29 VGND VGND VPWR VPWR sky130_fd_sc_hd__decap_3
XFILLER_0_21_143 VGND VGND VPWR VPWR sky130_fd_sc_hd__fill_1
X_929_ clknet_3_4__leaf_clk _051_ VGND VGND VPWR VPWR d1.state\[5\] sky130_fd_sc_hd__dfxtp_1
XFILLER_0_16_96 VGND VGND VPWR VPWR sky130_fd_sc_hd__fill_2
Xoutput8 net8 VGND VGND VPWR VPWR pwm0_out sky130_fd_sc_hd__clkbuf_4
XFILLER_0_37_29 VGND VGND VPWR VPWR sky130_ef_sc_hd__decap_12
Xoutput10 net10 VGND VGND VPWR VPWR pwm2_out sky130_fd_sc_hd__buf_2
X_645_ _201_ _270_ _271_ VGND VGND VPWR VPWR _272_ sky130_fd_sc_hd__and3_1
X_714_ e1.value\[2\] _303_ VGND VGND VPWR VPWR _318_ sky130_fd_sc_hd__or2_1
X_576_ net69 _212_ VGND VGND VPWR VPWR _219_ sky130_fd_sc_hd__and2_1
XFILLER_0_26_224 VGND VGND VPWR VPWR sky130_fd_sc_hd__decap_3
XTAP_113 VGND VPWR sky130_fd_sc_hd__tapvpwrvgnd_1
XTAP_102 VGND VPWR sky130_fd_sc_hd__tapvpwrvgnd_1
XTAP_124 VGND VPWR sky130_fd_sc_hd__tapvpwrvgnd_1
XTAP_135 VGND VPWR sky130_fd_sc_hd__tapvpwrvgnd_1
XTAP_146 VGND VPWR sky130_fd_sc_hd__tapvpwrvgnd_1
XTAP_157 VGND VPWR sky130_fd_sc_hd__tapvpwrvgnd_1
XTAP_168 VGND VPWR sky130_fd_sc_hd__tapvpwrvgnd_1
XTAP_179 VGND VPWR sky130_fd_sc_hd__tapvpwrvgnd_1
XFILLER_0_7_83 VGND VGND VPWR VPWR sky130_fd_sc_hd__fill_1
XFILLER_0_23_216 VGND VGND VPWR VPWR sky130_fd_sc_hd__decap_8
X_628_ _248_ _246_ _252_ _256_ _247_ VGND VGND VPWR VPWR _257_ sky130_fd_sc_hd__a311o_2
XFILLER_0_13_42 VGND VGND VPWR VPWR sky130_fd_sc_hd__decap_3
X_559_ _204_ _209_ VGND VGND VPWR VPWR _210_ sky130_fd_sc_hd__nor2_1
XFILLER_0_0_6 VGND VGND VPWR VPWR sky130_ef_sc_hd__decap_12
XFILLER_0_24_85 VGND VGND VPWR VPWR sky130_ef_sc_hd__decap_12
XFILLER_0_4_51 VGND VGND VPWR VPWR sky130_fd_sc_hd__fill_2
XFILLER_0_37_138 VGND VGND VPWR VPWR sky130_fd_sc_hd__fill_2
X_962_ clknet_3_4__leaf_clk _082_ VGND VGND VPWR VPWR d4.state\[2\] sky130_fd_sc_hd__dfxtp_1
X_893_ clknet_3_3__leaf_clk _018_ VGND VGND VPWR VPWR p2.counter\[6\] sky130_fd_sc_hd__dfxtp_1
XFILLER_0_28_138 VGND VGND VPWR VPWR sky130_fd_sc_hd__fill_2
XFILLER_0_3_216 VGND VGND VPWR VPWR sky130_fd_sc_hd__decap_8
XFILLER_0_10_76 VGND VGND VPWR VPWR sky130_fd_sc_hd__fill_1
XFILLER_0_35_73 VGND VGND VPWR VPWR sky130_fd_sc_hd__fill_2
XFILLER_0_19_105 VGND VGND VPWR VPWR sky130_fd_sc_hd__decap_6
X_945_ clknet_3_2__leaf_clk _066_ VGND VGND VPWR VPWR e1.value\[3\] sky130_fd_sc_hd__dfxtp_1
XFILLER_0_33_185 VGND VGND VPWR VPWR sky130_ef_sc_hd__decap_12
X_876_ p1.counter\[4\] p1.counter\[3\] _431_ VGND VGND VPWR VPWR _435_ sky130_fd_sc_hd__and3_1
Xhold32 d1.state\[4\] VGND VGND VPWR VPWR net42 sky130_fd_sc_hd__dlygate4sd3_1
X_661_ _282_ VGND VGND VPWR VPWR _047_ sky130_fd_sc_hd__clkbuf_1
Xhold76 e0.value\[0\] VGND VGND VPWR VPWR net86 sky130_fd_sc_hd__dlygate4sd3_1
Xhold65 d4.state\[7\] VGND VGND VPWR VPWR net75 sky130_fd_sc_hd__dlygate4sd3_1
Xhold43 d5.state\[4\] VGND VGND VPWR VPWR net53 sky130_fd_sc_hd__dlygate4sd3_1
X_592_ _227_ VGND VGND VPWR VPWR _033_ sky130_fd_sc_hd__clkbuf_1
Xhold54 d6.state\[5\] VGND VGND VPWR VPWR net64 sky130_fd_sc_hd__dlygate4sd3_1
Xhold21 p2.counter\[1\] VGND VGND VPWR VPWR net31 sky130_fd_sc_hd__dlygate4sd3_1
Xhold10 p2.counter\[4\] VGND VGND VPWR VPWR net20 sky130_fd_sc_hd__dlygate4sd3_1
X_730_ e1.value\[4\] _304_ VGND VGND VPWR VPWR _331_ sky130_fd_sc_hd__and2_1
X_928_ clknet_3_4__leaf_clk _050_ VGND VGND VPWR VPWR d1.state\[4\] sky130_fd_sc_hd__dfxtp_1
X_859_ e2.value\[6\] _384_ VGND VGND VPWR VPWR _424_ sky130_fd_sc_hd__or2_1
XFILLER_0_32_85 VGND VGND VPWR VPWR sky130_ef_sc_hd__decap_12
XFILLER_0_35_225 VGND VGND VPWR VPWR sky130_fd_sc_hd__fill_2
XFILLER_0_9_3 VGND VGND VPWR VPWR sky130_ef_sc_hd__decap_12
Xoutput9 net9 VGND VGND VPWR VPWR pwm1_out sky130_fd_sc_hd__clkbuf_4
X_575_ _218_ VGND VGND VPWR VPWR _025_ sky130_fd_sc_hd__clkbuf_1
X_644_ _236_ _266_ _267_ _269_ VGND VGND VPWR VPWR _271_ sky130_fd_sc_hd__or4_1
X_713_ e1.value\[2\] _303_ VGND VGND VPWR VPWR _317_ sky130_fd_sc_hd__and2_1
XTAP_114 VGND VPWR sky130_fd_sc_hd__tapvpwrvgnd_1
XTAP_103 VGND VPWR sky130_fd_sc_hd__tapvpwrvgnd_1
XTAP_125 VGND VPWR sky130_fd_sc_hd__tapvpwrvgnd_1
XTAP_136 VGND VPWR sky130_fd_sc_hd__tapvpwrvgnd_1
XTAP_147 VGND VPWR sky130_fd_sc_hd__tapvpwrvgnd_1
XTAP_158 VGND VPWR sky130_fd_sc_hd__tapvpwrvgnd_1
XTAP_169 VGND VPWR sky130_fd_sc_hd__tapvpwrvgnd_1
XFILLER_0_27_85 VGND VGND VPWR VPWR sky130_fd_sc_hd__fill_1
XFILLER_0_4_141 VGND VGND VPWR VPWR sky130_fd_sc_hd__decap_8
XFILLER_0_17_225 VGND VGND VPWR VPWR sky130_fd_sc_hd__fill_2
X_627_ e0.value\[3\] _233_ VGND VGND VPWR VPWR _256_ sky130_fd_sc_hd__and2_1
XFILLER_0_13_21 VGND VGND VPWR VPWR sky130_fd_sc_hd__decap_8
X_558_ p2.counter\[6\] p2.counter\[5\] _205_ VGND VGND VPWR VPWR _209_ sky130_fd_sc_hd__and3_1
X_489_ e1.value\[1\] VGND VGND VPWR VPWR _154_ sky130_fd_sc_hd__inv_2
XFILLER_0_1_144 VGND VGND VPWR VPWR sky130_fd_sc_hd__decap_3
XFILLER_0_1_166 VGND VGND VPWR VPWR sky130_fd_sc_hd__fill_2
XFILLER_0_24_97 VGND VGND VPWR VPWR sky130_ef_sc_hd__decap_12
XFILLER_0_4_85 VGND VGND VPWR VPWR sky130_ef_sc_hd__decap_12
XFILLER_0_4_41 VGND VGND VPWR VPWR sky130_fd_sc_hd__decap_4
X_961_ clknet_3_7__leaf_clk _081_ VGND VGND VPWR VPWR d4.state\[1\] sky130_fd_sc_hd__dfxtp_1
X_892_ clknet_3_3__leaf_clk _017_ VGND VGND VPWR VPWR p2.counter\[5\] sky130_fd_sc_hd__dfxtp_1
XFILLER_0_36_183 VGND VGND VPWR VPWR sky130_ef_sc_hd__decap_12
XFILLER_0_10_99 VGND VGND VPWR VPWR sky130_fd_sc_hd__decap_3
XFILLER_0_19_31 VGND VGND VPWR VPWR sky130_ef_sc_hd__decap_12
XFILLER_0_35_41 VGND VGND VPWR VPWR sky130_fd_sc_hd__decap_3
XFILLER_0_33_197 VGND VGND VPWR VPWR sky130_fd_sc_hd__decap_8
X_944_ clknet_3_3__leaf_clk _065_ VGND VGND VPWR VPWR e1.value\[2\] sky130_fd_sc_hd__dfxtp_1
X_875_ _433_ _434_ VGND VGND VPWR VPWR _109_ sky130_fd_sc_hd__nor2_1
XFILLER_0_21_21 VGND VGND VPWR VPWR sky130_fd_sc_hd__fill_1
XFILLER_0_15_164 VGND VGND VPWR VPWR sky130_fd_sc_hd__fill_1
Xhold22 _013_ VGND VGND VPWR VPWR net32 sky130_fd_sc_hd__dlygate4sd3_1
Xhold11 p1.counter\[4\] VGND VGND VPWR VPWR net21 sky130_fd_sc_hd__dlygate4sd3_1
XFILLER_0_30_123 VGND VGND VPWR VPWR sky130_fd_sc_hd__fill_1
Xhold33 d1.state\[3\] VGND VGND VPWR VPWR net43 sky130_fd_sc_hd__dlygate4sd3_1
X_660_ net73 _222_ VGND VGND VPWR VPWR _282_ sky130_fd_sc_hd__and2_1
Xhold55 d5.state\[7\] VGND VGND VPWR VPWR net65 sky130_fd_sc_hd__dlygate4sd3_1
X_591_ net68 _222_ VGND VGND VPWR VPWR _227_ sky130_fd_sc_hd__and2_1
Xhold44 d3.state\[4\] VGND VGND VPWR VPWR net54 sky130_fd_sc_hd__dlygate4sd3_1
Xhold66 p1.counter\[3\] VGND VGND VPWR VPWR net76 sky130_fd_sc_hd__dlygate4sd3_1
XFILLER_0_21_167 VGND VGND VPWR VPWR sky130_fd_sc_hd__fill_1
X_858_ _423_ VGND VGND VPWR VPWR _103_ sky130_fd_sc_hd__clkbuf_1
X_927_ clknet_3_5__leaf_clk _049_ VGND VGND VPWR VPWR d1.state\[3\] sky130_fd_sc_hd__dfxtp_1
XFILLER_0_8_106 VGND VGND VPWR VPWR sky130_fd_sc_hd__decap_8
X_789_ net38 _367_ VGND VGND VPWR VPWR _370_ sky130_fd_sc_hd__and2_1
XFILLER_0_16_54 VGND VGND VPWR VPWR sky130_fd_sc_hd__decap_3
XFILLER_0_29_223 VGND VGND VPWR VPWR sky130_fd_sc_hd__fill_1
XFILLER_0_32_97 VGND VGND VPWR VPWR sky130_ef_sc_hd__decap_12
XFILLER_0_12_178 VGND VGND VPWR VPWR sky130_ef_sc_hd__decap_12
XFILLER_0_32_3 VGND VGND VPWR VPWR sky130_ef_sc_hd__decap_12
XFILLER_0_35_204 VGND VGND VPWR VPWR sky130_ef_sc_hd__decap_12
X_712_ e1.value\[1\] _303_ _315_ VGND VGND VPWR VPWR _316_ sky130_fd_sc_hd__o21ba_1
X_574_ net56 _212_ VGND VGND VPWR VPWR _218_ sky130_fd_sc_hd__and2_1
X_643_ _266_ _267_ _269_ _236_ VGND VGND VPWR VPWR _270_ sky130_fd_sc_hd__o22ai_1
XFILLER_0_5_109 VGND VGND VPWR VPWR sky130_fd_sc_hd__decap_3
XTAP_115 VGND VPWR sky130_fd_sc_hd__tapvpwrvgnd_1
XTAP_104 VGND VPWR sky130_fd_sc_hd__tapvpwrvgnd_1
XTAP_126 VGND VPWR sky130_fd_sc_hd__tapvpwrvgnd_1
XTAP_137 VGND VPWR sky130_fd_sc_hd__tapvpwrvgnd_1
XTAP_148 VGND VPWR sky130_fd_sc_hd__tapvpwrvgnd_1
XTAP_159 VGND VPWR sky130_fd_sc_hd__tapvpwrvgnd_1
XFILLER_0_7_52 VGND VGND VPWR VPWR sky130_fd_sc_hd__decap_4
XFILLER_0_4_197 VGND VGND VPWR VPWR sky130_ef_sc_hd__decap_12
X_626_ e0.value\[4\] _233_ VGND VGND VPWR VPWR _255_ sky130_fd_sc_hd__xnor2_1
XFILLER_0_13_55 VGND VGND VPWR VPWR sky130_fd_sc_hd__fill_1
X_488_ e1.value\[3\] VGND VGND VPWR VPWR _153_ sky130_fd_sc_hd__inv_2
X_557_ net29 _205_ _208_ VGND VGND VPWR VPWR _017_ sky130_fd_sc_hd__o21a_1
X_609_ net40 _238_ _240_ VGND VGND VPWR VPWR _241_ sky130_fd_sc_hd__a21oi_1
XFILLER_0_6_226 VGND VGND VPWR VPWR sky130_fd_sc_hd__fill_1
XFILLER_0_4_97 VGND VGND VPWR VPWR sky130_ef_sc_hd__decap_12
XFILLER_0_4_64 VGND VGND VPWR VPWR sky130_fd_sc_hd__decap_3
XFILLER_0_37_107 VGND VGND VPWR VPWR sky130_fd_sc_hd__decap_4
X_960_ clknet_3_7__leaf_clk _080_ VGND VGND VPWR VPWR d4.state\[0\] sky130_fd_sc_hd__dfxtp_1
X_891_ clknet_3_3__leaf_clk _016_ VGND VGND VPWR VPWR p2.counter\[4\] sky130_fd_sc_hd__dfxtp_1
XFILLER_0_36_195 VGND VGND VPWR VPWR sky130_fd_sc_hd__fill_1
XFILLER_0_19_43 VGND VGND VPWR VPWR sky130_ef_sc_hd__decap_12
XFILLER_0_18_195 VGND VGND VPWR VPWR sky130_fd_sc_hd__fill_1
XFILLER_0_33_110 VGND VGND VPWR VPWR sky130_fd_sc_hd__fill_2
X_943_ clknet_3_3__leaf_clk _064_ VGND VGND VPWR VPWR e1.value\[1\] sky130_fd_sc_hd__dfxtp_1
X_874_ net76 _431_ _202_ VGND VGND VPWR VPWR _434_ sky130_fd_sc_hd__o21ai_1
XFILLER_0_21_55 VGND VGND VPWR VPWR sky130_fd_sc_hd__fill_1
XFILLER_0_24_121 VGND VGND VPWR VPWR sky130_fd_sc_hd__decap_6
Xhold56 d4.state\[5\] VGND VGND VPWR VPWR net66 sky130_fd_sc_hd__dlygate4sd3_1
Xhold12 d6.state\[3\] VGND VGND VPWR VPWR net22 sky130_fd_sc_hd__dlygate4sd3_1
Xhold23 d4.state\[6\] VGND VGND VPWR VPWR net33 sky130_fd_sc_hd__dlygate4sd3_1
Xhold34 d6.state\[4\] VGND VGND VPWR VPWR net44 sky130_fd_sc_hd__dlygate4sd3_1
XFILLER_0_30_168 VGND VGND VPWR VPWR sky130_fd_sc_hd__fill_1
Xhold45 p2.counter\[3\] VGND VGND VPWR VPWR net55 sky130_fd_sc_hd__dlygate4sd3_1
Xhold67 d0.state\[1\] VGND VGND VPWR VPWR net77 sky130_fd_sc_hd__dlygate4sd3_1
X_590_ _226_ VGND VGND VPWR VPWR _032_ sky130_fd_sc_hd__clkbuf_1
XFILLER_0_21_135 VGND VGND VPWR VPWR sky130_fd_sc_hd__decap_8
X_926_ clknet_3_5__leaf_clk _048_ VGND VGND VPWR VPWR d1.state\[2\] sky130_fd_sc_hd__dfxtp_1
X_788_ _369_ VGND VGND VPWR VPWR _087_ sky130_fd_sc_hd__clkbuf_1
X_857_ _201_ _421_ _422_ VGND VGND VPWR VPWR _423_ sky130_fd_sc_hd__and3_1
XFILLER_0_32_43 VGND VGND VPWR VPWR sky130_ef_sc_hd__decap_12
XFILLER_0_12_157 VGND VGND VPWR VPWR sky130_ef_sc_hd__decap_12
XFILLER_0_25_3 VGND VGND VPWR VPWR sky130_fd_sc_hd__decap_8
XFILLER_0_35_216 VGND VGND VPWR VPWR sky130_fd_sc_hd__decap_4
X_642_ e0.value\[5\] _234_ _257_ _268_ _262_ VGND VGND VPWR VPWR _269_ sky130_fd_sc_hd__a221oi_4
X_711_ _154_ _300_ _313_ _314_ _155_ VGND VGND VPWR VPWR _315_ sky130_fd_sc_hd__o41a_1
X_573_ _217_ VGND VGND VPWR VPWR _024_ sky130_fd_sc_hd__clkbuf_1
Xclkbuf_3_1__f_clk clknet_0_clk VGND VGND VPWR VPWR clknet_3_1__leaf_clk sky130_fd_sc_hd__clkbuf_16
XTAP_116 VGND VPWR sky130_fd_sc_hd__tapvpwrvgnd_1
XTAP_105 VGND VPWR sky130_fd_sc_hd__tapvpwrvgnd_1
XTAP_127 VGND VPWR sky130_fd_sc_hd__tapvpwrvgnd_1
XTAP_138 VGND VPWR sky130_fd_sc_hd__tapvpwrvgnd_1
XTAP_149 VGND VPWR sky130_fd_sc_hd__tapvpwrvgnd_1
X_909_ clknet_3_7__leaf_clk _032_ VGND VGND VPWR VPWR d6.state\[4\] sky130_fd_sc_hd__dfxtp_1
XFILLER_0_4_154 VGND VGND VPWR VPWR sky130_fd_sc_hd__fill_2
XFILLER_0_4_121 VGND VGND VPWR VPWR sky130_fd_sc_hd__decap_8
X_625_ _252_ _253_ _254_ VGND VGND VPWR VPWR _039_ sky130_fd_sc_hd__o21a_1
XFILLER_0_13_34 VGND VGND VPWR VPWR sky130_fd_sc_hd__decap_8
X_487_ e1.value\[4\] VGND VGND VPWR VPWR _152_ sky130_fd_sc_hd__inv_2
X_556_ _204_ _207_ VGND VGND VPWR VPWR _208_ sky130_fd_sc_hd__nor2_1
XFILLER_0_1_124 VGND VGND VPWR VPWR sky130_fd_sc_hd__decap_4
X_608_ _137_ _234_ VGND VGND VPWR VPWR _240_ sky130_fd_sc_hd__xnor2_1
XFILLER_0_24_11 VGND VGND VPWR VPWR sky130_fd_sc_hd__fill_1
XFILLER_0_24_66 VGND VGND VPWR VPWR sky130_fd_sc_hd__decap_3
X_539_ net15 _195_ VGND VGND VPWR VPWR _012_ sky130_fd_sc_hd__nor2_1
XFILLER_0_10_200 VGND VGND VPWR VPWR sky130_fd_sc_hd__decap_6
XFILLER_0_4_76 VGND VGND VPWR VPWR sky130_fd_sc_hd__decap_8
X_890_ clknet_3_3__leaf_clk _015_ VGND VGND VPWR VPWR p2.counter\[3\] sky130_fd_sc_hd__dfxtp_1
XFILLER_0_19_55 VGND VGND VPWR VPWR sky130_fd_sc_hd__fill_1
XFILLER_0_18_141 VGND VGND VPWR VPWR sky130_fd_sc_hd__fill_2
XFILLER_0_33_122 VGND VGND VPWR VPWR sky130_fd_sc_hd__fill_1
X_942_ clknet_3_0__leaf_clk _063_ VGND VGND VPWR VPWR e1.value\[0\] sky130_fd_sc_hd__dfxtp_1
X_873_ p1.counter\[3\] _431_ VGND VGND VPWR VPWR _433_ sky130_fd_sc_hd__and2_1
XFILLER_0_1_55 VGND VGND VPWR VPWR sky130_fd_sc_hd__fill_1
XFILLER_0_15_188 VGND VGND VPWR VPWR sky130_ef_sc_hd__decap_12
Xhold46 d0.state\[6\] VGND VGND VPWR VPWR net56 sky130_fd_sc_hd__dlygate4sd3_1
Xhold13 p0.counter\[4\] VGND VGND VPWR VPWR net23 sky130_fd_sc_hd__dlygate4sd3_1
Xhold24 d0.state\[3\] VGND VGND VPWR VPWR net34 sky130_fd_sc_hd__dlygate4sd3_1
Xhold68 d4.state\[2\] VGND VGND VPWR VPWR net78 sky130_fd_sc_hd__dlygate4sd3_1
Xhold35 d5.state\[6\] VGND VGND VPWR VPWR net45 sky130_fd_sc_hd__dlygate4sd3_1
Xhold57 d3.state\[5\] VGND VGND VPWR VPWR net67 sky130_fd_sc_hd__dlygate4sd3_1
X_925_ clknet_3_5__leaf_clk _047_ VGND VGND VPWR VPWR d1.state\[1\] sky130_fd_sc_hd__dfxtp_1
XFILLER_0_21_169 VGND VGND VPWR VPWR sky130_fd_sc_hd__decap_4
X_787_ _212_ net4 VGND VGND VPWR VPWR _369_ sky130_fd_sc_hd__and2_1
X_856_ _420_ _415_ _416_ _419_ VGND VGND VPWR VPWR _422_ sky130_fd_sc_hd__or4_1
XFILLER_0_8_119 VGND VGND VPWR VPWR sky130_ef_sc_hd__decap_12
XFILLER_0_29_203 VGND VGND VPWR VPWR sky130_ef_sc_hd__decap_12
XFILLER_0_29_225 VGND VGND VPWR VPWR sky130_fd_sc_hd__fill_2
XFILLER_0_32_55 VGND VGND VPWR VPWR sky130_ef_sc_hd__decap_12
XFILLER_0_12_169 VGND VGND VPWR VPWR sky130_fd_sc_hd__decap_4
XFILLER_0_18_3 VGND VGND VPWR VPWR sky130_fd_sc_hd__decap_6
X_641_ _255_ _261_ VGND VGND VPWR VPWR _268_ sky130_fd_sc_hd__nor2_1
X_572_ net74 _212_ VGND VGND VPWR VPWR _217_ sky130_fd_sc_hd__and2_1
X_710_ d4.debounced e1.old_a VGND VGND VPWR VPWR _314_ sky130_fd_sc_hd__nor2_1
XTAP_106 VGND VPWR sky130_fd_sc_hd__tapvpwrvgnd_1
XTAP_117 VGND VPWR sky130_fd_sc_hd__tapvpwrvgnd_1
XTAP_128 VGND VPWR sky130_fd_sc_hd__tapvpwrvgnd_1
XTAP_139 VGND VPWR sky130_fd_sc_hd__tapvpwrvgnd_1
X_908_ clknet_3_7__leaf_clk _031_ VGND VGND VPWR VPWR d6.state\[3\] sky130_fd_sc_hd__dfxtp_1
XPHY_0 VGND VGND VPWR VPWR sky130_fd_sc_hd__decap_3
X_839_ _398_ _396_ _402_ _406_ _397_ VGND VGND VPWR VPWR _407_ sky130_fd_sc_hd__a311o_1
XFILLER_0_7_3 VGND VGND VPWR VPWR sky130_ef_sc_hd__decap_12
X_624_ _252_ _253_ _195_ VGND VGND VPWR VPWR _254_ sky130_fd_sc_hd__a21oi_1
X_555_ p2.counter\[5\] _205_ VGND VGND VPWR VPWR _207_ sky130_fd_sc_hd__and2_1
XFILLER_0_13_57 VGND VGND VPWR VPWR sky130_fd_sc_hd__decap_8
XFILLER_0_13_68 VGND VGND VPWR VPWR sky130_fd_sc_hd__decap_6
X_486_ e1.value\[5\] VGND VGND VPWR VPWR _151_ sky130_fd_sc_hd__inv_2
XFILLER_0_9_225 VGND VGND VPWR VPWR sky130_fd_sc_hd__fill_2
XFILLER_0_13_220 VGND VGND VPWR VPWR sky130_fd_sc_hd__decap_4
X_607_ _138_ _236_ _239_ VGND VGND VPWR VPWR _036_ sky130_fd_sc_hd__a21oi_1
X_538_ net7 VGND VGND VPWR VPWR _195_ sky130_fd_sc_hd__buf_4
X_469_ e0.value\[4\] VGND VGND VPWR VPWR _135_ sky130_fd_sc_hd__inv_2
XFILLER_0_36_197 VGND VGND VPWR VPWR sky130_ef_sc_hd__decap_12
XFILLER_0_19_23 VGND VGND VPWR VPWR sky130_fd_sc_hd__decap_3
XFILLER_0_35_11 VGND VGND VPWR VPWR sky130_fd_sc_hd__fill_2
XFILLER_0_35_33 VGND VGND VPWR VPWR sky130_fd_sc_hd__decap_8
XFILLER_0_35_99 VGND VGND VPWR VPWR sky130_fd_sc_hd__fill_2
XFILLER_0_2_220 VGND VGND VPWR VPWR sky130_fd_sc_hd__decap_6
XFILLER_0_18_131 VGND VGND VPWR VPWR sky130_fd_sc_hd__decap_8
X_941_ clknet_3_4__leaf_clk _062_ VGND VGND VPWR VPWR e0.old_b sky130_fd_sc_hd__dfxtp_1
XFILLER_0_33_167 VGND VGND VPWR VPWR sky130_fd_sc_hd__fill_1
X_872_ _195_ _431_ net26 VGND VGND VPWR VPWR _108_ sky130_fd_sc_hd__nor3_1
XFILLER_0_21_57 VGND VGND VPWR VPWR sky130_fd_sc_hd__fill_1
XFILLER_0_24_156 VGND VGND VPWR VPWR sky130_fd_sc_hd__fill_2
Xhold14 d1.state\[6\] VGND VGND VPWR VPWR net24 sky130_fd_sc_hd__dlygate4sd3_1
Xhold25 p0.counter\[2\] VGND VGND VPWR VPWR net35 sky130_fd_sc_hd__dlygate4sd3_1
Xhold47 d6.state\[2\] VGND VGND VPWR VPWR net57 sky130_fd_sc_hd__dlygate4sd3_1
Xhold36 d5.state\[5\] VGND VGND VPWR VPWR net46 sky130_fd_sc_hd__dlygate4sd3_1
Xhold58 d6.state\[6\] VGND VGND VPWR VPWR net68 sky130_fd_sc_hd__dlygate4sd3_1
Xhold69 d3.state\[6\] VGND VGND VPWR VPWR net79 sky130_fd_sc_hd__dlygate4sd3_1
X_924_ clknet_3_5__leaf_clk _046_ VGND VGND VPWR VPWR d1.state\[0\] sky130_fd_sc_hd__dfxtp_1
X_786_ _368_ VGND VGND VPWR VPWR _086_ sky130_fd_sc_hd__clkbuf_1
X_855_ _415_ _416_ _419_ _420_ VGND VGND VPWR VPWR _421_ sky130_fd_sc_hd__o22ai_1
XFILLER_0_29_215 VGND VGND VPWR VPWR sky130_fd_sc_hd__decap_8
XFILLER_0_32_67 VGND VGND VPWR VPWR sky130_ef_sc_hd__decap_12
X_640_ e0.value\[6\] _234_ VGND VGND VPWR VPWR _267_ sky130_fd_sc_hd__nor2_1
X_571_ _216_ VGND VGND VPWR VPWR _023_ sky130_fd_sc_hd__clkbuf_1
XTAP_107 VGND VPWR sky130_fd_sc_hd__tapvpwrvgnd_1
XTAP_118 VGND VPWR sky130_fd_sc_hd__tapvpwrvgnd_1