*SPEF "ieee 1481-1999"
*DESIGN "rgb_mixer"
*DATE "11:11:11 Fri 11 11, 1111"
*VENDOR "OpenRCX"
*PROGRAM "Parallel Extraction"
*VERSION "1.0"
*DESIGN_FLOW "NAME_SCOPE LOCAL" "PIN_CAP NONE"
*DIVIDER /
*DELIMITER :
*BUS_DELIMITER []
*T_UNIT 1 NS
*C_UNIT 1 PF
*R_UNIT 1 OHM
*L_UNIT 1 HENRY

*NAME_MAP
*3 clk
*4 enc0_a
*5 enc0_b
*6 enc1_a
*7 enc1_b
*8 enc2_a
*9 enc2_b
*10 pwm0_out
*11 pwm1_out
*12 pwm2_out
*13 reset
*14 _000_
*15 _001_
*16 _002_
*17 _003_
*18 _004_
*19 _005_
*20 _006_
*21 _007_
*22 _008_
*23 _009_
*24 _010_
*25 _011_
*26 _012_
*27 _013_
*28 _014_
*29 _015_
*30 _016_
*31 _017_
*32 _018_
*33 _019_
*34 _020_
*35 _021_
*36 _022_
*37 _023_
*38 _024_
*39 _025_
*40 _026_
*41 _027_
*42 _028_
*43 _029_
*44 _030_
*45 _031_
*46 _032_
*47 _033_
*48 _034_
*49 _035_
*50 _036_
*51 _037_
*52 _038_
*53 _039_
*54 _040_
*55 _041_
*56 _042_
*57 _043_
*58 _044_
*59 _045_
*60 _046_
*61 _047_
*62 _048_
*63 _049_
*64 _050_
*65 _051_
*66 _052_
*67 _053_
*68 _054_
*69 _055_
*70 _056_
*71 _057_
*72 _058_
*73 _059_
*74 _060_
*75 _061_
*76 _062_
*77 _063_
*78 _064_
*79 _065_
*80 _066_
*81 _067_
*82 _068_
*83 _069_
*84 _070_
*85 _071_
*86 _072_
*87 _073_
*88 _074_
*89 _075_
*90 _076_
*91 _077_
*92 _078_
*93 _079_
*94 _080_
*95 _081_
*96 _082_
*97 _083_
*98 _084_
*99 _085_
*100 _086_
*101 _087_
*102 _088_
*103 _089_
*104 _090_
*105 _091_
*106 _092_
*107 _093_
*108 _094_
*109 _095_
*110 _096_
*111 _097_
*112 _098_
*113 _099_
*114 _100_
*115 _101_
*116 _102_
*117 _103_
*118 _104_
*119 _105_
*120 _106_
*121 _107_
*122 _108_
*123 _109_
*124 _110_
*125 _111_
*126 _112_
*127 _113_
*128 _114_
*129 _115_
*130 _116_
*131 _117_
*132 _118_
*133 _119_
*134 _120_
*135 _121_
*136 _122_
*137 _123_
*138 _124_
*139 _125_
*140 _126_
*141 _127_
*142 _128_
*143 _129_
*144 _130_
*145 _131_
*146 _132_
*147 _133_
*148 _134_
*149 _135_
*150 _136_
*151 _137_
*152 _138_
*153 _139_
*154 _140_
*155 _141_
*156 _142_
*157 _143_
*158 _144_
*159 _145_
*160 _146_
*161 _147_
*162 _148_
*163 _149_
*164 _150_
*165 _151_
*166 _152_
*167 _153_
*168 _154_
*169 _155_
*170 _156_
*171 _157_
*172 _158_
*173 _159_
*174 _160_
*175 _161_
*176 _162_
*177 _163_
*178 _164_
*179 _165_
*180 _166_
*181 _167_
*182 _168_
*183 _169_
*184 _170_
*185 _171_
*186 _172_
*187 _173_
*188 _174_
*189 _175_
*190 _176_
*191 _177_
*192 _178_
*193 _179_
*194 _180_
*195 _181_
*196 _182_
*197 _183_
*198 _184_
*199 _185_
*200 _186_
*201 _187_
*202 _188_
*203 _189_
*204 _190_
*205 _191_
*206 _192_
*207 _193_
*208 _194_
*209 _195_
*210 _196_
*211 _197_
*212 _198_
*213 _199_
*214 _200_
*215 _201_
*216 _202_
*217 _203_
*218 _204_
*219 _205_
*220 _206_
*221 _207_
*222 _208_
*223 _209_
*224 _210_
*225 _211_
*226 _212_
*227 _213_
*228 _214_
*229 _215_
*230 _216_
*231 _217_
*232 _218_
*233 _219_
*234 _220_
*235 _221_
*236 _222_
*237 _223_
*238 _224_
*239 _225_
*240 _226_
*241 _227_
*242 _228_
*243 _229_
*244 _230_
*245 _231_
*246 _232_
*247 _233_
*248 _234_
*249 _235_
*250 _236_
*251 _237_
*252 _238_
*253 _239_
*254 _240_
*255 _241_
*256 _242_
*257 _243_
*258 _244_
*259 _245_
*260 _246_
*261 _247_
*262 _248_
*263 _249_
*264 _250_
*265 _251_
*266 _252_
*267 _253_
*268 _254_
*269 _255_
*270 _256_
*271 _257_
*272 _258_
*273 _259_
*274 _260_
*275 _261_
*276 _262_
*277 _263_
*278 _264_
*279 _265_
*280 _266_
*281 _267_
*282 _268_
*283 _269_
*284 _270_
*285 _271_
*286 _272_
*287 _273_
*288 _274_
*289 _275_
*290 _276_
*291 _277_
*292 _278_
*293 _279_
*294 _280_
*295 _281_
*296 _282_
*297 _283_
*298 _284_
*299 _285_
*300 _286_
*301 _287_
*302 _288_
*303 _289_
*304 _290_
*305 _291_
*306 _292_
*307 _293_
*308 _294_
*309 _295_
*310 _296_
*311 _297_
*312 _298_
*313 _299_
*314 _300_
*315 _301_
*316 _302_
*317 _303_
*318 _304_
*319 _305_
*320 _306_
*321 _307_
*322 _308_
*323 _309_
*324 _310_
*325 _311_
*326 _312_
*327 _313_
*328 _314_
*329 _315_
*330 _316_
*331 _317_
*332 _318_
*333 _319_
*334 _320_
*335 _321_
*336 _322_
*337 _323_
*338 _324_
*339 _325_
*340 _326_
*341 _327_
*342 _328_
*343 _329_
*344 _330_
*345 _331_
*346 _332_
*347 _333_
*348 _334_
*349 _335_
*350 _336_
*351 _337_
*352 _338_
*353 _339_
*354 _340_
*355 _341_
*356 _342_
*357 _343_
*358 _344_
*359 _345_
*360 _346_
*361 _347_
*362 _348_
*363 _349_
*364 _350_
*365 _351_
*366 _352_
*367 _353_
*368 _354_
*369 _355_
*370 _356_
*371 _357_
*372 _358_
*373 _359_
*374 _360_
*375 _361_
*376 _362_
*377 _363_
*378 _364_
*379 _365_
*380 _366_
*381 _367_
*382 _368_
*383 _369_
*384 _370_
*385 _371_
*386 _372_
*387 _373_
*388 _374_
*389 _375_
*390 _376_
*391 _377_
*392 _378_
*393 _379_
*394 _380_
*395 _381_
*396 _382_
*397 _383_
*398 _384_
*399 _385_
*400 _386_
*401 _387_
*402 _388_
*403 _389_
*404 _390_
*405 _391_
*406 _392_
*407 _393_
*408 _394_
*409 _395_
*410 _396_
*411 _397_
*412 _398_
*413 _399_
*414 _400_
*415 _401_
*416 _402_
*417 _403_
*418 _404_
*419 _405_
*420 _406_
*421 _407_
*422 _408_
*423 _409_
*424 _410_
*425 _411_
*426 _412_
*427 _413_
*428 _414_
*429 _415_
*430 _416_
*431 _417_
*432 _418_
*433 _419_
*434 _420_
*435 _421_
*436 _422_
*437 _423_
*438 _424_
*439 _425_
*440 _426_
*441 _427_
*442 _428_
*443 _429_
*444 _430_
*445 _431_
*446 _432_
*447 _433_
*448 _434_
*449 _435_
*450 _436_
*451 _437_
*452 _438_
*453 _439_
*454 _440_
*455 _441_
*456 clknet_0_clk
*457 clknet_3_0__leaf_clk
*458 clknet_3_1__leaf_clk
*459 clknet_3_2__leaf_clk
*460 clknet_3_3__leaf_clk
*461 clknet_3_4__leaf_clk
*462 clknet_3_5__leaf_clk
*463 clknet_3_6__leaf_clk
*464 clknet_3_7__leaf_clk
*465 d0\.debounced
*466 d0\.state\[0\]
*467 d0\.state\[1\]
*468 d0\.state\[2\]
*469 d0\.state\[3\]
*470 d0\.state\[4\]
*471 d0\.state\[5\]
*472 d0\.state\[6\]
*473 d0\.state\[7\]
*474 d1\.debounced
*475 d1\.state\[0\]
*476 d1\.state\[1\]
*477 d1\.state\[2\]
*478 d1\.state\[3\]
*479 d1\.state\[4\]
*480 d1\.state\[5\]
*481 d1\.state\[6\]
*482 d1\.state\[7\]
*483 d3\.debounced
*484 d3\.state\[0\]
*485 d3\.state\[1\]
*486 d3\.state\[2\]
*487 d3\.state\[3\]
*488 d3\.state\[4\]
*489 d3\.state\[5\]
*490 d3\.state\[6\]
*491 d3\.state\[7\]
*492 d4\.debounced
*493 d4\.state\[0\]
*494 d4\.state\[1\]
*495 d4\.state\[2\]
*496 d4\.state\[3\]
*497 d4\.state\[4\]
*498 d4\.state\[5\]
*499 d4\.state\[6\]
*500 d4\.state\[7\]
*501 d5\.debounced
*502 d5\.state\[0\]
*503 d5\.state\[1\]
*504 d5\.state\[2\]
*505 d5\.state\[3\]
*506 d5\.state\[4\]
*507 d5\.state\[5\]
*508 d5\.state\[6\]
*509 d5\.state\[7\]
*510 d6\.debounced
*511 d6\.state\[0\]
*512 d6\.state\[1\]
*513 d6\.state\[2\]
*514 d6\.state\[3\]
*515 d6\.state\[4\]
*516 d6\.state\[5\]
*517 d6\.state\[6\]
*518 d6\.state\[7\]
*519 e0\.old_a
*520 e0\.old_b
*521 e0\.value\[0\]
*522 e0\.value\[1\]
*523 e0\.value\[2\]
*524 e0\.value\[3\]
*525 e0\.value\[4\]
*526 e0\.value\[5\]
*527 e0\.value\[6\]
*528 e0\.value\[7\]
*529 e1\.old_a
*530 e1\.old_b
*531 e1\.value\[0\]
*532 e1\.value\[1\]
*533 e1\.value\[2\]
*534 e1\.value\[3\]
*535 e1\.value\[4\]
*536 e1\.value\[5\]
*537 e1\.value\[6\]
*538 e1\.value\[7\]
*539 e2\.old_a
*540 e2\.old_b
*541 e2\.value\[0\]
*542 e2\.value\[1\]
*543 e2\.value\[2\]
*544 e2\.value\[3\]
*545 e2\.value\[4\]
*546 e2\.value\[5\]
*547 e2\.value\[6\]
*548 e2\.value\[7\]
*549 net1
*550 net10
*551 net11
*552 net12
*553 net13
*554 net14
*555 net15
*556 net16
*557 net17
*558 net18
*559 net19
*560 net2
*561 net20
*562 net21
*563 net22
*564 net23
*565 net24
*566 net25
*567 net26
*568 net27
*569 net28
*570 net29
*571 net3
*572 net30
*573 net31
*574 net32
*575 net33
*576 net34
*577 net35
*578 net36
*579 net37
*580 net38
*581 net39
*582 net4
*583 net40
*584 net41
*585 net42
*586 net43
*587 net44
*588 net45
*589 net46
*590 net47
*591 net48
*592 net49
*593 net5
*594 net50
*595 net51
*596 net52
*597 net53
*598 net54
*599 net55
*600 net56
*601 net57
*602 net58
*603 net59
*604 net6
*605 net60
*606 net61
*607 net62
*608 net63
*609 net64
*610 net65
*611 net66
*612 net67
*613 net68
*614 net69
*615 net7
*616 net70
*617 net71
*618 net72
*619 net73
*620 net74
*621 net75
*622 net76
*623 net77
*624 net78
*625 net79
*626 net8
*627 net80
*628 net81
*629 net82
*630 net83
*631 net84
*632 net85
*633 net86
*634 net9
*635 p0\.counter\[0\]
*636 p0\.counter\[1\]
*637 p0\.counter\[2\]
*638 p0\.counter\[3\]
*639 p0\.counter\[4\]
*640 p0\.counter\[5\]
*641 p0\.counter\[6\]
*642 p0\.counter\[7\]
*643 p1\.counter\[0\]
*644 p1\.counter\[1\]
*645 p1\.counter\[2\]
*646 p1\.counter\[3\]
*647 p1\.counter\[4\]
*648 p1\.counter\[5\]
*649 p1\.counter\[6\]
*650 p1\.counter\[7\]
*651 p2\.counter\[0\]
*652 p2\.counter\[1\]
*653 p2\.counter\[2\]
*654 p2\.counter\[3\]
*655 p2\.counter\[4\]
*656 p2\.counter\[5\]
*657 p2\.counter\[6\]
*658 p2\.counter\[7\]
*659 FILLER_0_0_103
*660 FILLER_0_0_111
*661 FILLER_0_0_113
*662 FILLER_0_0_125
*663 FILLER_0_0_136
*664 FILLER_0_0_141
*665 FILLER_0_0_153
*666 FILLER_0_0_165
*667 FILLER_0_0_169
*668 FILLER_0_0_175
*669 FILLER_0_0_18
*670 FILLER_0_0_182
*671 FILLER_0_0_194
*672 FILLER_0_0_200
*673 FILLER_0_0_212
*674 FILLER_0_0_220
*675 FILLER_0_0_225
*676 FILLER_0_0_26
*677 FILLER_0_0_29
*678 FILLER_0_0_41
*679 FILLER_0_0_53
*680 FILLER_0_0_57
*681 FILLER_0_0_6
*682 FILLER_0_0_69
*683 FILLER_0_0_81
*684 FILLER_0_0_91
*685 FILLER_0_10_118
*686 FILLER_0_10_128
*687 FILLER_0_10_136
*688 FILLER_0_10_149
*689 FILLER_0_10_15
*690 FILLER_0_10_157
*691 FILLER_0_10_161
*692 FILLER_0_10_181
*693 FILLER_0_10_192
*694 FILLER_0_10_200
*695 FILLER_0_10_206
*696 FILLER_0_10_226
*697 FILLER_0_10_27
*698 FILLER_0_10_3
*699 FILLER_0_10_76
*700 FILLER_0_10_82
*701 FILLER_0_10_85
*702 FILLER_0_10_93
*703 FILLER_0_10_99
*704 FILLER_0_11_129
*705 FILLER_0_11_133
*706 FILLER_0_11_15
*707 FILLER_0_11_156
*708 FILLER_0_11_164
*709 FILLER_0_11_193
*710 FILLER_0_11_205
*711 FILLER_0_11_21
*712 FILLER_0_11_213
*713 FILLER_0_11_223
*714 FILLER_0_11_225
*715 FILLER_0_11_3
*716 FILLER_0_11_38
*717 FILLER_0_11_55
*718 FILLER_0_11_65
*719 FILLER_0_11_81
*720 FILLER_0_12_128
*721 FILLER_0_12_15
*722 FILLER_0_12_157
*723 FILLER_0_12_169
*724 FILLER_0_12_178
*725 FILLER_0_12_190
*726 FILLER_0_12_197
*727 FILLER_0_12_27
*728 FILLER_0_12_29
*729 FILLER_0_12_43
*730 FILLER_0_12_6
*731 FILLER_0_12_60
*732 FILLER_0_12_83
*733 FILLER_0_13_102
*734 FILLER_0_13_110
*735 FILLER_0_13_113
*736 FILLER_0_13_117
*737 FILLER_0_13_129
*738 FILLER_0_13_138
*739 FILLER_0_13_150
*740 FILLER_0_13_162
*741 FILLER_0_13_169
*742 FILLER_0_13_177
*743 FILLER_0_13_185
*744 FILLER_0_13_21
*745 FILLER_0_13_220
*746 FILLER_0_13_225
*747 FILLER_0_13_29
*748 FILLER_0_13_3
*749 FILLER_0_13_34
*750 FILLER_0_13_42
*751 FILLER_0_13_55
*752 FILLER_0_13_57
*753 FILLER_0_13_68
*754 FILLER_0_13_74
*755 FILLER_0_14_103
*756 FILLER_0_14_115
*757 FILLER_0_14_119
*758 FILLER_0_14_125
*759 FILLER_0_14_129
*760 FILLER_0_14_136
*761 FILLER_0_14_152
*762 FILLER_0_14_172
*763 FILLER_0_14_182
*764 FILLER_0_14_224
*765 FILLER_0_14_27
*766 FILLER_0_14_29
*767 FILLER_0_14_3
*768 FILLER_0_14_41
*769 FILLER_0_14_55
*770 FILLER_0_14_62
*771 FILLER_0_14_7
*772 FILLER_0_14_74
*773 FILLER_0_14_82
*774 FILLER_0_14_85
*775 FILLER_0_14_91
*776 FILLER_0_15_118
*777 FILLER_0_15_135
*778 FILLER_0_15_164
*779 FILLER_0_15_188
*780 FILLER_0_15_225
*781 FILLER_0_15_3
*782 FILLER_0_15_32
*783 FILLER_0_15_57
*784 FILLER_0_15_76
*785 FILLER_0_15_88
*786 FILLER_0_16_141
*787 FILLER_0_16_178
*788 FILLER_0_16_190
*789 FILLER_0_16_215
*790 FILLER_0_16_3
*791 FILLER_0_16_36
*792 FILLER_0_16_54
*793 FILLER_0_16_81
*794 FILLER_0_16_91
*795 FILLER_0_16_96
*796 FILLER_0_17_108
*797 FILLER_0_17_113
*798 FILLER_0_17_125
*799 FILLER_0_17_177
*800 FILLER_0_17_183
*801 FILLER_0_17_20
*802 FILLER_0_17_208
*803 FILLER_0_17_220
*804 FILLER_0_17_225
*805 FILLER_0_17_3
*806 FILLER_0_17_30
*807 FILLER_0_17_62
*808 FILLER_0_17_83
*809 FILLER_0_18_103
*810 FILLER_0_18_111
*811 FILLER_0_18_115
*812 FILLER_0_18_119
*813 FILLER_0_18_131
*814 FILLER_0_18_139
*815 FILLER_0_18_141
*816 FILLER_0_18_146
*817 FILLER_0_18_158
*818 FILLER_0_18_170
*819 FILLER_0_18_195
*820 FILLER_0_18_222
*821 FILLER_0_18_226
*822 FILLER_0_18_26
*823 FILLER_0_18_3
*824 FILLER_0_18_40
*825 FILLER_0_18_46
*826 FILLER_0_18_56
*827 FILLER_0_18_68
*828 FILLER_0_18_80
*829 FILLER_0_18_85
*830 FILLER_0_18_9
*831 FILLER_0_19_105
*832 FILLER_0_19_111
*833 FILLER_0_19_113
*834 FILLER_0_19_135
*835 FILLER_0_19_147
*836 FILLER_0_19_15
*837 FILLER_0_19_159
*838 FILLER_0_19_169
*839 FILLER_0_19_222
*840 FILLER_0_19_225
*841 FILLER_0_19_23
*842 FILLER_0_19_3
*843 FILLER_0_19_31
*844 FILLER_0_19_43
*845 FILLER_0_19_55
*846 FILLER_0_19_57
*847 FILLER_0_19_61
*848 FILLER_0_19_69
*849 FILLER_0_19_81
*850 FILLER_0_19_93
*851 FILLER_0_1_104
*852 FILLER_0_1_124
*853 FILLER_0_1_144
*854 FILLER_0_1_15
*855 FILLER_0_1_166
*856 FILLER_0_1_201
*857 FILLER_0_1_210
*858 FILLER_0_1_222
*859 FILLER_0_1_225
*860 FILLER_0_1_27
*861 FILLER_0_1_3
*862 FILLER_0_1_35
*863 FILLER_0_1_55
*864 FILLER_0_1_82
*865 FILLER_0_20_111
*866 FILLER_0_20_119
*867 FILLER_0_20_136
*868 FILLER_0_20_141
*869 FILLER_0_20_15
*870 FILLER_0_20_157
*871 FILLER_0_20_174
*872 FILLER_0_20_186
*873 FILLER_0_20_195
*874 FILLER_0_20_224
*875 FILLER_0_20_27
*876 FILLER_0_20_29
*877 FILLER_0_20_3
*878 FILLER_0_20_41
*879 FILLER_0_20_45
*880 FILLER_0_20_62
*881 FILLER_0_20_67
*882 FILLER_0_20_82
*883 FILLER_0_20_91
*884 FILLER_0_21_118
*885 FILLER_0_21_135
*886 FILLER_0_21_143
*887 FILLER_0_21_15
*888 FILLER_0_21_167
*889 FILLER_0_21_169
*890 FILLER_0_21_173
*891 FILLER_0_21_190
*892 FILLER_0_21_202
*893 FILLER_0_21_21
*894 FILLER_0_21_221
*895 FILLER_0_21_225
*896 FILLER_0_21_3
*897 FILLER_0_21_41
*898 FILLER_0_21_55
*899 FILLER_0_21_57
*900 FILLER_0_22_107
*901 FILLER_0_22_113
*902 FILLER_0_22_135
*903 FILLER_0_22_139
*904 FILLER_0_22_141
*905 FILLER_0_22_145
*906 FILLER_0_22_160
*907 FILLER_0_22_189
*908 FILLER_0_22_195
*909 FILLER_0_22_209
*910 FILLER_0_22_221
*911 FILLER_0_22_26
*912 FILLER_0_22_29
*913 FILLER_0_22_3
*914 FILLER_0_22_57
*915 FILLER_0_22_9
*916 FILLER_0_22_98
*917 FILLER_0_23_111
*918 FILLER_0_23_113
*919 FILLER_0_23_119
*920 FILLER_0_23_139
*921 FILLER_0_23_149
*922 FILLER_0_23_159
*923 FILLER_0_23_167
*924 FILLER_0_23_185
*925 FILLER_0_23_19
*926 FILLER_0_23_216
*927 FILLER_0_23_225
*928 FILLER_0_23_44
*929 FILLER_0_23_63
*930 FILLER_0_23_75
*931 FILLER_0_23_87
*932 FILLER_0_23_99
*933 FILLER_0_24_109
*934 FILLER_0_24_11
*935 FILLER_0_24_121
*936 FILLER_0_24_156
*937 FILLER_0_24_202
*938 FILLER_0_24_209
*939 FILLER_0_24_3
*940 FILLER_0_24_46
*941 FILLER_0_24_58
*942 FILLER_0_24_66
*943 FILLER_0_24_80
*944 FILLER_0_24_85
*945 FILLER_0_24_97
*946 FILLER_0_25_11
*947 FILLER_0_25_131
*948 FILLER_0_25_139
*949 FILLER_0_25_165
*950 FILLER_0_25_169
*951 FILLER_0_25_196
*952 FILLER_0_25_203
*953 FILLER_0_25_225
*954 FILLER_0_25_3
*955 FILLER_0_25_62
*956 FILLER_0_25_93
*957 FILLER_0_26_119
*958 FILLER_0_26_135
*959 FILLER_0_26_139
*960 FILLER_0_26_141
*961 FILLER_0_26_160
*962 FILLER_0_26_172
*963 FILLER_0_26_176
*964 FILLER_0_26_197
*965 FILLER_0_26_22
*966 FILLER_0_26_224
*967 FILLER_0_26_3
*968 FILLER_0_26_37
*969 FILLER_0_26_54
*970 FILLER_0_26_82
*971 FILLER_0_26_90
*972 FILLER_0_27_102
*973 FILLER_0_27_121
*974 FILLER_0_27_135
*975 FILLER_0_27_143
*976 FILLER_0_27_158
*977 FILLER_0_27_166
*978 FILLER_0_27_169
*979 FILLER_0_27_181
*980 FILLER_0_27_187
*981 FILLER_0_27_220
*982 FILLER_0_27_225
*983 FILLER_0_27_39
*984 FILLER_0_27_50
*985 FILLER_0_27_61
*986 FILLER_0_27_81
*987 FILLER_0_27_85
*988 FILLER_0_28_121
*989 FILLER_0_28_130
*990 FILLER_0_28_138
*991 FILLER_0_28_141
*992 FILLER_0_28_15
*993 FILLER_0_28_158
*994 FILLER_0_28_181
*995 FILLER_0_28_193
*996 FILLER_0_28_197
*997 FILLER_0_28_201
*998 FILLER_0_28_205
*999 FILLER_0_28_213
*1000 FILLER_0_28_223
*1001 FILLER_0_28_23
*1002 FILLER_0_28_3
*1003 FILLER_0_28_37
*1004 FILLER_0_28_43
*1005 FILLER_0_28_55
*1006 FILLER_0_28_67
*1007 FILLER_0_28_79
*1008 FILLER_0_28_83
*1009 FILLER_0_28_85
*1010 FILLER_0_28_93
*1011 FILLER_0_29_133
*1012 FILLER_0_29_15
*1013 FILLER_0_29_154
*1014 FILLER_0_29_166
*1015 FILLER_0_29_179
*1016 FILLER_0_29_191
*1017 FILLER_0_29_203
*1018 FILLER_0_29_215
*1019 FILLER_0_29_223
*1020 FILLER_0_29_225
*1021 FILLER_0_29_24
*1022 FILLER_0_29_3
*1023 FILLER_0_29_45
*1024 FILLER_0_29_91
*1025 FILLER_0_2_139
*1026 FILLER_0_2_15
*1027 FILLER_0_2_171
*1028 FILLER_0_2_208
*1029 FILLER_0_2_220
*1030 FILLER_0_2_226
*1031 FILLER_0_2_27
*1032 FILLER_0_2_29
*1033 FILLER_0_2_3
*1034 FILLER_0_2_41
*1035 FILLER_0_2_58
*1036 FILLER_0_2_72
*1037 FILLER_0_2_85
*1038 FILLER_0_2_99
*1039 FILLER_0_30_11
*1040 FILLER_0_30_123
*1041 FILLER_0_30_141
*1042 FILLER_0_30_164
*1043 FILLER_0_30_168
*1044 FILLER_0_30_172
*1045 FILLER_0_30_176
*1046 FILLER_0_30_187
*1047 FILLER_0_30_195
*1048 FILLER_0_30_213
*1049 FILLER_0_30_225
*1050 FILLER_0_30_3
*1051 FILLER_0_30_57
*1052 FILLER_0_30_89
*1053 FILLER_0_30_95
*1054 FILLER_0_31_103
*1055 FILLER_0_31_111
*1056 FILLER_0_31_113
*1057 FILLER_0_31_135
*1058 FILLER_0_31_147
*1059 FILLER_0_31_159
*1060 FILLER_0_31_199
*1061 FILLER_0_31_211
*1062 FILLER_0_31_223
*1063 FILLER_0_31_225
*1064 FILLER_0_31_30
*1065 FILLER_0_31_42
*1066 FILLER_0_31_50
*1067 FILLER_0_31_70
*1068 FILLER_0_31_80
*1069 FILLER_0_31_92
*1070 FILLER_0_32_109
*1071 FILLER_0_32_121
*1072 FILLER_0_32_138
*1073 FILLER_0_32_141
*1074 FILLER_0_32_15
*1075 FILLER_0_32_153
*1076 FILLER_0_32_160
*1077 FILLER_0_32_172
*1078 FILLER_0_32_176
*1079 FILLER_0_32_184
*1080 FILLER_0_32_202
*1081 FILLER_0_32_211
*1082 FILLER_0_32_223
*1083 FILLER_0_32_25
*1084 FILLER_0_32_3
*1085 FILLER_0_32_43
*1086 FILLER_0_32_55
*1087 FILLER_0_32_67
*1088 FILLER_0_32_79
*1089 FILLER_0_32_83
*1090 FILLER_0_32_85
*1091 FILLER_0_32_97
*1092 FILLER_0_33_110
*1093 FILLER_0_33_113
*1094 FILLER_0_33_117
*1095 FILLER_0_33_122
*1096 FILLER_0_33_126
*1097 FILLER_0_33_138
*1098 FILLER_0_33_15
*1099 FILLER_0_33_150
*1100 FILLER_0_33_167
*1101 FILLER_0_33_173
*1102 FILLER_0_33_185
*1103 FILLER_0_33_197
*1104 FILLER_0_33_205
*1105 FILLER_0_33_212
*1106 FILLER_0_33_225
*1107 FILLER_0_33_23
*1108 FILLER_0_33_3
*1109 FILLER_0_33_31
*1110 FILLER_0_33_43
*1111 FILLER_0_33_55
*1112 FILLER_0_33_57
*1113 FILLER_0_33_64
*1114 FILLER_0_33_76
*1115 FILLER_0_33_84
*1116 FILLER_0_33_91
*1117 FILLER_0_34_123
*1118 FILLER_0_34_135
*1119 FILLER_0_34_139
*1120 FILLER_0_34_141
*1121 FILLER_0_34_147
*1122 FILLER_0_34_15
*1123 FILLER_0_34_162
*1124 FILLER_0_34_168
*1125 FILLER_0_34_174
*1126 FILLER_0_34_186
*1127 FILLER_0_34_194
*1128 FILLER_0_34_197
*1129 FILLER_0_34_209
*1130 FILLER_0_34_221
*1131 FILLER_0_34_27
*1132 FILLER_0_34_3
*1133 FILLER_0_34_36
*1134 FILLER_0_34_48
*1135 FILLER_0_34_58
*1136 FILLER_0_34_83
*1137 FILLER_0_34_85
*1138 FILLER_0_35_11
*1139 FILLER_0_35_110
*1140 FILLER_0_35_113
*1141 FILLER_0_35_156
*1142 FILLER_0_35_180
*1143 FILLER_0_35_192
*1144 FILLER_0_35_204
*1145 FILLER_0_35_216
*1146 FILLER_0_35_220
*1147 FILLER_0_35_225
*1148 FILLER_0_35_3
*1149 FILLER_0_35_33
*1150 FILLER_0_35_41
*1151 FILLER_0_35_73
*1152 FILLER_0_35_91
*1153 FILLER_0_35_99
*1154 FILLER_0_36_138
*1155 FILLER_0_36_15
*1156 FILLER_0_36_157
*1157 FILLER_0_36_165
*1158 FILLER_0_36_183
*1159 FILLER_0_36_19
*1160 FILLER_0_36_195
*1161 FILLER_0_36_197
*1162 FILLER_0_36_209
*1163 FILLER_0_36_221
*1164 FILLER_0_36_24
*1165 FILLER_0_36_3
*1166 FILLER_0_36_37
*1167 FILLER_0_36_43
*1168 FILLER_0_36_60
*1169 FILLER_0_36_66
*1170 FILLER_0_36_75
*1171 FILLER_0_36_81
*1172 FILLER_0_36_85
*1173 FILLER_0_36_93
*1174 FILLER_0_37_107
*1175 FILLER_0_37_111
*1176 FILLER_0_37_113
*1177 FILLER_0_37_125
*1178 FILLER_0_37_131
*1179 FILLER_0_37_138
*1180 FILLER_0_37_141
*1181 FILLER_0_37_153
*1182 FILLER_0_37_165
*1183 FILLER_0_37_169
*1184 FILLER_0_37_173
*1185 FILLER_0_37_185
*1186 FILLER_0_37_193
*1187 FILLER_0_37_197
*1188 FILLER_0_37_202
*1189 FILLER_0_37_21
*1190 FILLER_0_37_214
*1191 FILLER_0_37_222
*1192 FILLER_0_37_225
*1193 FILLER_0_37_27
*1194 FILLER_0_37_29
*1195 FILLER_0_37_41
*1196 FILLER_0_37_53
*1197 FILLER_0_37_57
*1198 FILLER_0_37_69
*1199 FILLER_0_37_81
*1200 FILLER_0_37_85
*1201 FILLER_0_37_9
*1202 FILLER_0_37_97
*1203 FILLER_0_3_135
*1204 FILLER_0_3_15
*1205 FILLER_0_3_151
*1206 FILLER_0_3_166
*1207 FILLER_0_3_174
*1208 FILLER_0_3_216
*1209 FILLER_0_3_225
*1210 FILLER_0_3_27
*1211 FILLER_0_3_3
*1212 FILLER_0_3_35
*1213 FILLER_0_3_65
*1214 FILLER_0_3_80
*1215 FILLER_0_3_88
*1216 FILLER_0_3_93
*1217 FILLER_0_3_99
*1218 FILLER_0_4_109
*1219 FILLER_0_4_121
*1220 FILLER_0_4_129
*1221 FILLER_0_4_139
*1222 FILLER_0_4_141
*1223 FILLER_0_4_15
*1224 FILLER_0_4_154
*1225 FILLER_0_4_167
*1226 FILLER_0_4_192
*1227 FILLER_0_4_197
*1228 FILLER_0_4_209
*1229 FILLER_0_4_221
*1230 FILLER_0_4_27
*1231 FILLER_0_4_29
*1232 FILLER_0_4_3
*1233 FILLER_0_4_41
*1234 FILLER_0_4_45
*1235 FILLER_0_4_51
*1236 FILLER_0_4_56
*1237 FILLER_0_4_64
*1238 FILLER_0_4_76
*1239 FILLER_0_4_85
*1240 FILLER_0_4_97
*1241 FILLER_0_5_109
*1242 FILLER_0_5_113
*1243 FILLER_0_5_125
*1244 FILLER_0_5_149
*1245 FILLER_0_5_15
*1246 FILLER_0_5_153
*1247 FILLER_0_5_166
*1248 FILLER_0_5_169
*1249 FILLER_0_5_177
*1250 FILLER_0_5_184
*1251 FILLER_0_5_216
*1252 FILLER_0_5_225
*1253 FILLER_0_5_27
*1254 FILLER_0_5_3
*1255 FILLER_0_5_35
*1256 FILLER_0_5_46
*1257 FILLER_0_5_54
*1258 FILLER_0_5_57
*1259 FILLER_0_5_63
*1260 FILLER_0_5_74
*1261 FILLER_0_5_80
*1262 FILLER_0_5_92
*1263 FILLER_0_5_97
*1264 FILLER_0_6_122
*1265 FILLER_0_6_129
*1266 FILLER_0_6_137
*1267 FILLER_0_6_15
*1268 FILLER_0_6_157
*1269 FILLER_0_6_168
*1270 FILLER_0_6_180
*1271 FILLER_0_6_192
*1272 FILLER_0_6_197
*1273 FILLER_0_6_211
*1274 FILLER_0_6_220
*1275 FILLER_0_6_226
*1276 FILLER_0_6_27
*1277 FILLER_0_6_29
*1278 FILLER_0_6_3
*1279 FILLER_0_6_61
*1280 FILLER_0_6_79
*1281 FILLER_0_6_85
*1282 FILLER_0_6_89
*1283 FILLER_0_7_113
*1284 FILLER_0_7_123
*1285 FILLER_0_7_137
*1286 FILLER_0_7_15
*1287 FILLER_0_7_158
*1288 FILLER_0_7_217
*1289 FILLER_0_7_223
*1290 FILLER_0_7_225
*1291 FILLER_0_7_27
*1292 FILLER_0_7_3
*1293 FILLER_0_7_52
*1294 FILLER_0_7_57
*1295 FILLER_0_7_68
*1296 FILLER_0_7_83
*1297 FILLER_0_8_106
*1298 FILLER_0_8_119
*1299 FILLER_0_8_131
*1300 FILLER_0_8_15
*1301 FILLER_0_8_150
*1302 FILLER_0_8_157
*1303 FILLER_0_8_195
*1304 FILLER_0_8_207
*1305 FILLER_0_8_27
*1306 FILLER_0_8_29
*1307 FILLER_0_8_3
*1308 FILLER_0_8_46
*1309 FILLER_0_8_58
*1310 FILLER_0_8_70
*1311 FILLER_0_8_74
*1312 FILLER_0_8_79
*1313 FILLER_0_8_83
*1314 FILLER_0_8_85
*1315 FILLER_0_9_101
*1316 FILLER_0_9_109
*1317 FILLER_0_9_120
*1318 FILLER_0_9_132
*1319 FILLER_0_9_15
*1320 FILLER_0_9_150
*1321 FILLER_0_9_162
*1322 FILLER_0_9_169
*1323 FILLER_0_9_179
*1324 FILLER_0_9_207
*1325 FILLER_0_9_225
*1326 FILLER_0_9_3
*1327 FILLER_0_9_36
*1328 FILLER_0_9_44
*1329 FILLER_0_9_51
*1330 FILLER_0_9_55
*1331 FILLER_0_9_57
*1332 FILLER_0_9_72
*1333 FILLER_0_9_77
*1334 FILLER_0_9_89
*1335 PHY_0
*1336 PHY_1
*1337 PHY_10
*1338 PHY_11
*1339 PHY_12
*1340 PHY_13
*1341 PHY_14
*1342 PHY_15
*1343 PHY_16
*1344 PHY_17
*1345 PHY_18
*1346 PHY_19
*1347 PHY_2
*1348 PHY_20
*1349 PHY_21
*1350 PHY_22
*1351 PHY_23
*1352 PHY_24
*1353 PHY_25
*1354 PHY_26
*1355 PHY_27
*1356 PHY_28
*1357 PHY_29
*1358 PHY_3
*1359 PHY_30
*1360 PHY_31
*1361 PHY_32
*1362 PHY_33
*1363 PHY_34
*1364 PHY_35
*1365 PHY_36
*1366 PHY_37
*1367 PHY_38
*1368 PHY_39
*1369 PHY_4
*1370 PHY_40
*1371 PHY_41
*1372 PHY_42
*1373 PHY_43
*1374 PHY_44
*1375 PHY_45
*1376 PHY_46
*1377 PHY_47
*1378 PHY_48
*1379 PHY_49
*1380 PHY_5
*1381 PHY_50
*1382 PHY_51
*1383 PHY_52
*1384 PHY_53
*1385 PHY_54
*1386 PHY_55
*1387 PHY_56
*1388 PHY_57
*1389 PHY_58
*1390 PHY_59
*1391 PHY_6
*1392 PHY_60
*1393 PHY_61
*1394 PHY_62
*1395 PHY_63
*1396 PHY_64
*1397 PHY_65
*1398 PHY_66
*1399 PHY_67
*1400 PHY_68
*1401 PHY_69
*1402 PHY_7
*1403 PHY_70
*1404 PHY_71
*1405 PHY_72
*1406 PHY_73
*1407 PHY_74
*1408 PHY_75
*1409 PHY_8
*1410 PHY_9
*1411 TAP_100
*1412 TAP_101
*1413 TAP_102
*1414 TAP_103
*1415 TAP_104
*1416 TAP_105
*1417 TAP_106
*1418 TAP_107
*1419 TAP_108
*1420 TAP_109
*1421 TAP_110
*1422 TAP_111
*1423 TAP_112
*1424 TAP_113
*1425 TAP_114
*1426 TAP_115
*1427 TAP_116
*1428 TAP_117
*1429 TAP_118
*1430 TAP_119
*1431 TAP_120
*1432 TAP_121
*1433 TAP_122
*1434 TAP_123
*1435 TAP_124
*1436 TAP_125
*1437 TAP_126
*1438 TAP_127
*1439 TAP_128
*1440 TAP_129
*1441 TAP_130
*1442 TAP_131
*1443 TAP_132
*1444 TAP_133
*1445 TAP_134
*1446 TAP_135
*1447 TAP_136
*1448 TAP_137
*1449 TAP_138
*1450 TAP_139
*1451 TAP_140
*1452 TAP_141
*1453 TAP_142
*1454 TAP_143
*1455 TAP_144
*1456 TAP_145
*1457 TAP_146
*1458 TAP_147
*1459 TAP_148
*1460 TAP_149
*1461 TAP_150
*1462 TAP_151
*1463 TAP_152
*1464 TAP_153
*1465 TAP_154
*1466 TAP_155
*1467 TAP_156
*1468 TAP_157
*1469 TAP_158
*1470 TAP_159
*1471 TAP_160
*1472 TAP_161
*1473 TAP_162
*1474 TAP_163
*1475 TAP_164
*1476 TAP_165
*1477 TAP_166
*1478 TAP_167
*1479 TAP_168
*1480 TAP_169
*1481 TAP_170
*1482 TAP_171
*1483 TAP_172
*1484 TAP_173
*1485 TAP_174
*1486 TAP_175
*1487 TAP_176
*1488 TAP_177
*1489 TAP_178
*1490 TAP_179
*1491 TAP_180
*1492 TAP_181
*1493 TAP_182
*1494 TAP_183
*1495 TAP_184
*1496 TAP_185
*1497 TAP_186
*1498 TAP_187
*1499 TAP_188
*1500 TAP_189
*1501 TAP_190
*1502 TAP_191
*1503 TAP_192
*1504 TAP_193
*1505 TAP_194
*1506 TAP_195
*1507 TAP_196
*1508 TAP_197
*1509 TAP_198
*1510 TAP_199
*1511 TAP_200
*1512 TAP_201
*1513 TAP_202
*1514 TAP_203
*1515 TAP_204
*1516 TAP_205
*1517 TAP_206
*1518 TAP_207
*1519 TAP_208
*1520 TAP_209
*1521 TAP_210
*1522 TAP_211
*1523 TAP_212
*1524 TAP_213
*1525 TAP_214
*1526 TAP_215
*1527 TAP_216
*1528 TAP_217
*1529 TAP_218
*1530 TAP_219
*1531 TAP_220
*1532 TAP_221
*1533 TAP_222
*1534 TAP_223
*1535 TAP_224
*1536 TAP_225
*1537 TAP_226
*1538 TAP_227
*1539 TAP_228
*1540 TAP_229
*1541 TAP_230
*1542 TAP_231
*1543 TAP_232
*1544 TAP_233
*1545 TAP_234
*1546 TAP_235
*1547 TAP_76
*1548 TAP_77
*1549 TAP_78
*1550 TAP_79
*1551 TAP_80
*1552 TAP_81
*1553 TAP_82
*1554 TAP_83
*1555 TAP_84
*1556 TAP_85
*1557 TAP_86
*1558 TAP_87
*1559 TAP_88
*1560 TAP_89
*1561 TAP_90
*1562 TAP_91
*1563 TAP_92
*1564 TAP_93
*1565 TAP_94
*1566 TAP_95
*1567 TAP_96
*1568 TAP_97
*1569 TAP_98
*1570 TAP_99
*1571 _442_
*1572 _443_
*1573 _444_
*1574 _445_
*1575 _446_
*1576 _447_
*1577 _448_
*1578 _449_
*1579 _450_
*1580 _451_
*1581 _452_
*1582 _453_
*1583 _454_
*1584 _455_
*1585 _456_
*1586 _457_
*1587 _458_
*1588 _459_
*1589 _460_
*1590 _461_
*1591 _462_
*1592 _463_
*1593 _464_
*1594 _465_
*1595 _466_
*1596 _467_
*1597 _468_
*1598 _469_
*1599 _470_
*1600 _471_
*1601 _472_
*1602 _473_
*1603 _474_
*1604 _475_
*1605 _476_
*1606 _477_
*1607 _478_
*1608 _479_
*1609 _480_
*1610 _481_
*1611 _482_
*1612 _483_
*1613 _484_
*1614 _485_
*1615 _486_
*1616 _487_
*1617 _488_
*1618 _489_
*1619 _490_
*1620 _491_
*1621 _492_
*1622 _493_
*1623 _494_
*1624 _495_
*1625 _496_
*1626 _497_
*1627 _498_
*1628 _499_
*1629 _500_
*1630 _501_
*1631 _502_
*1632 _503_
*1633 _504_
*1634 _505_
*1635 _506_
*1636 _507_
*1637 _508_
*1638 _509_
*1639 _510_
*1640 _511_
*1641 _512_
*1642 _513_
*1643 _514_
*1644 _515_
*1645 _516_
*1646 _517_
*1647 _518_
*1648 _519_
*1649 _520_
*1650 _521_
*1651 _522_
*1652 _523_
*1653 _524_
*1654 _525_
*1655 _526_
*1656 _527_
*1657 _528_
*1658 _529_
*1659 _530_
*1660 _531_
*1661 _532_
*1662 _533_
*1663 _534_
*1664 _535_
*1665 _536_
*1666 _537_
*1667 _538_
*1668 _539_
*1669 _540_
*1670 _541_
*1671 _542_
*1672 _543_
*1673 _544_
*1674 _545_
*1675 _546_
*1676 _547_
*1677 _548_
*1678 _549_
*1679 _550_
*1680 _551_
*1681 _552_
*1682 _553_
*1683 _554_
*1684 _555_
*1685 _556_
*1686 _557_
*1687 _558_
*1688 _559_
*1689 _560_
*1690 _561_
*1691 _562_
*1692 _563_
*1693 _564_
*1694 _565_
*1695 _566_
*1696 _567_
*1697 _568_
*1698 _569_
*1699 _570_
*1700 _571_
*1701 _572_
*1702 _573_
*1703 _574_
*1704 _575_
*1705 _576_
*1706 _577_
*1707 _578_
*1708 _579_
*1709 _580_
*1710 _581_
*1711 _582_
*1712 _583_
*1713 _584_
*1714 _585_
*1715 _586_
*1716 _587_
*1717 _588_
*1718 _589_
*1719 _590_
*1720 _591_
*1721 _592_
*1722 _593_
*1723 _594_
*1724 _595_
*1725 _596_
*1726 _597_
*1727 _598_
*1728 _599_
*1729 _600_
*1730 _601_
*1731 _602_
*1732 _603_
*1733 _604_
*1734 _605_
*1735 _606_
*1736 _607_
*1737 _608_
*1738 _609_
*1739 _610_
*1740 _611_
*1741 _612_
*1742 _613_
*1743 _614_
*1744 _615_
*1745 _616_
*1746 _617_
*1747 _618_
*1748 _619_
*1749 _620_
*1750 _621_
*1751 _622_
*1752 _623_
*1753 _624_
*1754 _625_
*1755 _626_
*1756 _627_
*1757 _628_
*1758 _629_
*1759 _630_
*1760 _631_
*1761 _632_
*1762 _633_
*1763 _634_
*1764 _635_
*1765 _636_
*1766 _637_
*1767 _638_
*1768 _639_
*1769 _640_
*1770 _641_
*1771 _642_
*1772 _643_
*1773 _644_
*1774 _645_
*1775 _646_
*1776 _647_
*1777 _648_
*1778 _649_
*1779 _650_
*1780 _651_
*1781 _652_
*1782 _653_
*1783 _654_
*1784 _655_
*1785 _656_
*1786 _657_
*1787 _658_
*1788 _659_
*1789 _660_
*1790 _661_
*1791 _662_
*1792 _663_
*1793 _664_
*1794 _665_
*1795 _666_
*1796 _667_
*1797 _668_
*1798 _669_
*1799 _670_
*1800 _671_
*1801 _672_
*1802 _673_
*1803 _674_
*1804 _675_
*1805 _676_
*1806 _677_
*1807 _678_
*1808 _679_
*1809 _680_
*1810 _681_
*1811 _682_
*1812 _683_
*1813 _684_
*1814 _685_
*1815 _686_
*1816 _687_
*1817 _688_
*1818 _689_
*1819 _690_
*1820 _691_
*1821 _692_
*1822 _693_
*1823 _694_
*1824 _695_
*1825 _696_
*1826 _697_
*1827 _698_
*1828 _699_
*1829 _700_
*1830 _701_
*1831 _702_
*1832 _703_
*1833 _704_
*1834 _705_
*1835 _706_
*1836 _707_
*1837 _708_
*1838 _709_
*1839 _710_
*1840 _711_
*1841 _712_
*1842 _713_
*1843 _714_
*1844 _715_
*1845 _716_
*1846 _717_
*1847 _718_
*1848 _719_
*1849 _720_
*1850 _721_
*1851 _722_
*1852 _723_
*1853 _724_
*1854 _725_
*1855 _726_
*1856 _727_
*1857 _728_
*1858 _729_
*1859 _730_
*1860 _731_
*1861 _732_
*1862 _733_
*1863 _734_
*1864 _735_
*1865 _736_
*1866 _737_
*1867 _738_
*1868 _739_
*1869 _740_
*1870 _741_
*1871 _742_
*1872 _743_
*1873 _744_
*1874 _745_
*1875 _746_
*1876 _747_
*1877 _748_
*1878 _749_
*1879 _750_
*1880 _751_
*1881 _752_
*1882 _753_
*1883 _754_
*1884 _755_
*1885 _756_
*1886 _757_
*1887 _758_
*1888 _759_
*1889 _760_
*1890 _761_
*1891 _762_
*1892 _763_
*1893 _764_
*1894 _765_
*1895 _766_
*1896 _767_
*1897 _768_
*1898 _769_
*1899 _770_
*1900 _771_
*1901 _772_
*1902 _773_
*1903 _774_
*1904 _775_
*1905 _776_
*1906 _777_
*1907 _778_
*1908 _779_
*1909 _780_
*1910 _781_
*1911 _782_
*1912 _783_
*1913 _784_
*1914 _785_
*1915 _786_
*1916 _787_
*1917 _788_
*1918 _789_
*1919 _790_
*1920 _791_
*1921 _792_
*1922 _793_
*1923 _794_
*1924 _795_
*1925 _796_
*1926 _797_
*1927 _798_